feeders/30_SE001_1/012_cargasMT_1_1.dss
New Load.MT_102484_M1 bus1=236741.1.2.3.4 phases=3 conn=Delta model=2 kv=23.1 kw=1.5103655 pf=0.92 daily=MT5_DU status=variable vmaxpu=1.5 vminpu=0.93
New Load.MT_102484_M2 bus1=236741.1.2.3.4 phases=3 conn=Delta model=3 kv=23.1 kw=1.5103655 pf=0.92 daily=MT5_DU status=variable vmaxpu=1.5 vminpu=0.93
New Load.MT_102494_M1 bus1=789091.1.2.3.4 phases=3 conn=Delta model=2 kv=23.1 kw=20.744807 pf=0.92 daily=MT3_DU status=variable vmaxpu=1.5 vminpu=0.93
New Load.MT_102494_M2 bus1=789091.1.2.3.4 phases=3 conn=Delta model=3 kv=23.1 kw=20.744807 pf=0.92 daily=MT3_DU status=variable vmaxpu=1.5 vminpu=0.93
New Load.MT_103190_M1 bus1=236672.1.2.3.4 phases=3 conn=Delta model=2 kv=23.1 kw=9.779221 pf=0.92 daily=MT5_DU status=variable vmaxpu=1.5 vminpu=0.93
New Load.MT_103190_M2 bus1=236672.1.2.3.4 phases=3 conn=Delta model=3 kv=23.1 kw=9.779221 pf=0.92 daily=MT5_DU status=variable vmaxpu=1.5 vminpu=0.93
New Load.MT_121839_M1 bus1=322101.1.2.3.4 phases=3 conn=Delta model=2 kv=23.1 kw=4.7461525 pf=0.92 daily=MT4_DU status=variable vmaxpu=1.5 vminpu=0.93
New Load.MT_121839_M2 bus1=322101.1.2.3.4 phases=3 conn=Delta model=3 kv=23.1 kw=4.7461525 pf=0.92 daily=MT4_DU status=variable vmaxpu=1.5 vminpu=0.93
New Load.MT_124672_M1 bus1=700451.1.2.3.4 phases=3 conn=Delta model=2 kv=23.1 kw=73.9444115 pf=0.92 daily=MT3_DU status=variable vmaxpu=1.5 vminpu=0.93
New Load.MT_124672_M2 bus1=700451.1.2.3.4 phases=3 conn=Delta model=3 kv=23.1 kw=73.9444115 pf=0.92 daily=MT3_DU status=variable vmaxpu=1.5 vminpu=0.93
New Load.MT_125512_M1 bus1=781561.1.2.3.4 phases=3 conn=Delta model=2 kv=23.1 kw=42.0177405 pf=0.92 daily=MT6_DU status=variable vmaxpu=1.5 vminpu=0.93
New Load.MT_125512_M2 bus1=781561.1.2.3.4 phases=3 conn=Delta model=3 kv=23.1 kw=42.0177405 pf=0.92 daily=MT6_DU status=variable vmaxpu=1.5 vminpu=0.93
New Load.MT_125803_M1 bus1=813801.1.2.3.4 phases=3 conn=Delta model=2 kv=23.1 kw=0 pf=0.92 daily=MT5_DU status=variable vmaxpu=1.5 vminpu=0.93
New Load.MT_125803_M2 bus1=813801.1.2.3.4 phases=3 conn=Delta model=3 kv=23.1 kw=0 pf=0.92 daily=MT5_DU status=variable vmaxpu=1.5 vminpu=0.93
New Load.MT_130221_M1 bus1=645221.1.2.3.4 phases=3 conn=Delta model=2 kv=23.1 kw=3.0058095 pf=0.92 daily=MT1_DU status=variable vmaxpu=1.5 vminpu=0.93
New Load.MT_130221_M2 bus1=645221.1.2.3.4 phases=3 conn=Delta model=3 kv=23.1 kw=3.0058095 pf=0.92 daily=MT1_DU status=variable vmaxpu=1.5 vminpu=0.93
New Load.MT_1737304_M1 bus1=793131.1.2.3.4 phases=3 conn=Delta model=2 kv=23.1 kw=16.84096 pf=0.92 daily=MT3_DU status=variable vmaxpu=1.5 vminpu=0.93
New Load.MT_1737304_M2 bus1=793131.1.2.3.4 phases=3 conn=Delta model=3 kv=23.1 kw=16.84096 pf=0.92 daily=MT3_DU status=variable vmaxpu=1.5 vminpu=0.93
New Load.MT_2501078_M1 bus1=583071.1.2.3.4 phases=3 conn=Delta model=2 kv=23.1 kw=1.848048 pf=0.92 daily=MT3_DU status=variable vmaxpu=1.5 vminpu=0.93
New Load.MT_2501078_M2 bus1=583071.1.2.3.4 phases=3 conn=Delta model=3 kv=23.1 kw=1.848048 pf=0.92 daily=MT3_DU status=variable vmaxpu=1.5 vminpu=0.93
New Load.MT_2501081_M1 bus1=233051.1.2.3.4 phases=3 conn=Delta model=2 kv=23.1 kw=5.5916065 pf=0.92 daily=MT1_DU status=variable vmaxpu=1.5 vminpu=0.93
New Load.MT_2501081_M2 bus1=233051.1.2.3.4 phases=3 conn=Delta model=3 kv=23.1 kw=5.5916065 pf=0.92 daily=MT1_DU status=variable vmaxpu=1.5 vminpu=0.93
New Load.MT_2519536_M1 bus1=345081.1.2.3.4 phases=3 conn=Delta model=2 kv=23.1 kw=8.581295 pf=0.92 daily=MT5_DU status=variable vmaxpu=1.5 vminpu=0.93
New Load.MT_2519536_M2 bus1=345081.1.2.3.4 phases=3 conn=Delta model=3 kv=23.1 kw=8.581295 pf=0.92 daily=MT5_DU status=variable vmaxpu=1.5 vminpu=0.93
New Load.MT_2520897_M1 bus1=441001.1.2.3.4 phases=3 conn=Delta model=2 kv=23.1 kw=8.9936195 pf=0.92 daily=MT1_DU status=variable vmaxpu=1.5 vminpu=0.93
New Load.MT_2520897_M2 bus1=441001.1.2.3.4 phases=3 conn=Delta model=3 kv=23.1 kw=8.9936195 pf=0.92 daily=MT1_DU status=variable vmaxpu=1.5 vminpu=0.93
New Load.MT_2521219_M1 bus1=441911.1.2.3.4 phases=3 conn=Delta model=2 kv=23.1 kw=15.6728225 pf=0.92 daily=MT2_DU status=variable vmaxpu=1.5 vminpu=0.93
New Load.MT_2521219_M2 bus1=441911.1.2.3.4 phases=3 conn=Delta model=3 kv=23.1 kw=15.6728225 pf=0.92 daily=MT2_DU status=variable vmaxpu=1.5 vminpu=0.93
New Load.MT_2523933_M1 bus1=436401.1.2.3.4 phases=3 conn=Delta model=2 kv=23.1 kw=2.7975595 pf=0.92 daily=MT5_DU status=variable vmaxpu=1.5 vminpu=0.93
New Load.MT_2523933_M2 bus1=436401.1.2.3.4 phases=3 conn=Delta model=3 kv=23.1 kw=2.7975595 pf=0.92 daily=MT5_DU status=variable vmaxpu=1.5 vminpu=0.93
New Load.MT_2525902_M1 bus1=464151.1.2.3.4 phases=3 conn=Delta model=2 kv=23.1 kw=9.416209 pf=0.92 daily=MT3_DU status=variable vmaxpu=1.5 vminpu=0.93
New Load.MT_2525902_M2 bus1=464151.1.2.3.4 phases=3 conn=Delta model=3 kv=23.1 kw=9.416209 pf=0.92 daily=MT3_DU status=variable vmaxpu=1.5 vminpu=0.93
New Load.MT_2526429_M1 bus1=602611.1.2.3.4 phases=3 conn=Delta model=2 kv=23.1 kw=11.269429 pf=0.92 daily=MT5_DU status=variable vmaxpu=1.5 vminpu=0.93
New Load.MT_2526429_M2 bus1=602611.1.2.3.4 phases=3 conn=Delta model=3 kv=23.1 kw=11.269429 pf=0.92 daily=MT5_DU status=variable vmaxpu=1.5 vminpu=0.93
New Load.MT_2532625_M1 bus1=712551.1.2.3.4 phases=3 conn=Delta model=2 kv=23.1 kw=4.9542265 pf=0.92 daily=MT3_DU status=variable vmaxpu=1.5 vminpu=0.93
New Load.MT_2532625_M2 bus1=712551.1.2.3.4 phases=3 conn=Delta model=3 kv=23.1 kw=4.9542265 pf=0.92 daily=MT3_DU status=variable vmaxpu=1.5 vminpu=0.93
New Load.MT_2534417_M1 bus1=743151.1.2.3.4 phases=3 conn=Delta model=2 kv=23.1 kw=4.917003 pf=0.92 daily=MT2_DU status=variable vmaxpu=1.5 vminpu=0.93
New Load.MT_2534417_M2 bus1=743151.1.2.3.4 phases=3 conn=Delta model=3 kv=23.1 kw=4.917003 pf=0.92 daily=MT2_DU status=variable vmaxpu=1.5 vminpu=0.93
New Load.MT_2535884_M1 bus1=805051.1.2.3.4 phases=3 conn=Delta model=2 kv=23.1 kw=0.5178515 pf=0.92 daily=MT6_DU status=variable vmaxpu=1.5 vminpu=0.93
New Load.MT_2535884_M2 bus1=805051.1.2.3.4 phases=3 conn=Delta model=3 kv=23.1 kw=0.5178515 pf=0.92 daily=MT6_DU status=variable vmaxpu=1.5 vminpu=0.93
New Load.MT_2538566_M1 bus1=347642.1.2.3.4 phases=3 conn=Delta model=2 kv=23.1 kw=0 pf=0.92 daily=MT1_DU status=variable vmaxpu=1.5 vminpu=0.93
New Load.MT_2538566_M2 bus1=347642.1.2.3.4 phases=3 conn=Delta model=3 kv=23.1 kw=0 pf=0.92 daily=MT1_DU status=variable vmaxpu=1.5 vminpu=0.93
New Load.MT_3020860_M1 bus1=444632.1.2.3.4 phases=3 conn=Delta model=2 kv=23.1 kw=15.9819425 pf=0.92 daily=MT5_DU status=variable vmaxpu=1.5 vminpu=0.93
New Load.MT_3020860_M2 bus1=444632.1.2.3.4 phases=3 conn=Delta model=3 kv=23.1 kw=15.9819425 pf=0.92 daily=MT5_DU status=variable vmaxpu=1.5 vminpu=0.93
New Load.MT_3034376_M1 bus1=690461.1.2.3.4 phases=3 conn=Delta model=2 kv=23.1 kw=14.0396325 pf=0.92 daily=MT5_DU status=variable vmaxpu=1.5 vminpu=0.93
New Load.MT_3034376_M2 bus1=690461.1.2.3.4 phases=3 conn=Delta model=3 kv=23.1 kw=14.0396325 pf=0.92 daily=MT5_DU status=variable vmaxpu=1.5 vminpu=0.93
New Load.MT_3034512_M1 bus1=691391.1.2.3.4 phases=3 conn=Delta model=2 kv=23.1 kw=25.257882 pf=0.92 daily=MT4_DU status=variable vmaxpu=1.5 vminpu=0.93
New Load.MT_3034512_M2 bus1=691391.1.2.3.4 phases=3 conn=Delta model=3 kv=23.1 kw=25.257882 pf=0.92 daily=MT4_DU status=variable vmaxpu=1.5 vminpu=0.93
New Load.MT_312157_M1 bus1=750661.1.2.3.4 phases=3 conn=Delta model=2 kv=23.1 kw=5.2844895 pf=0.92 daily=MT4_DU status=variable vmaxpu=1.5 vminpu=0.93
New Load.MT_312157_M2 bus1=750661.1.2.3.4 phases=3 conn=Delta model=3 kv=23.1 kw=5.2844895 pf=0.92 daily=MT4_DU status=variable vmaxpu=1.5 vminpu=0.93
New Load.MT_333734_M1 bus1=688451.1.2.3.4 phases=3 conn=Delta model=2 kv=23.1 kw=15.908512 pf=0.92 daily=MT5_DU status=variable vmaxpu=1.5 vminpu=0.93
New Load.MT_333734_M2 bus1=688451.1.2.3.4 phases=3 conn=Delta model=3 kv=23.1 kw=15.908512 pf=0.92 daily=MT5_DU status=variable vmaxpu=1.5 vminpu=0.93
New Load.MT_333849_M1 bus1=676201.1.2.3.4 phases=3 conn=Delta model=2 kv=23.1 kw=34.6041915 pf=0.92 daily=MT2_DU status=variable vmaxpu=1.5 vminpu=0.93
New Load.MT_333849_M2 bus1=676201.1.2.3.4 phases=3 conn=Delta model=3 kv=23.1 kw=34.6041915 pf=0.92 daily=MT2_DU status=variable vmaxpu=1.5 vminpu=0.93
New Load.MT_334520_M1 bus1=730591.1.2.3.4 phases=3 conn=Delta model=2 kv=23.1 kw=295.580989 pf=0.92 daily=MT5_DU status=variable vmaxpu=1.5 vminpu=0.93
New Load.MT_334520_M2 bus1=730591.1.2.3.4 phases=3 conn=Delta model=3 kv=23.1 kw=295.580989 pf=0.92 daily=MT5_DU status=variable vmaxpu=1.5 vminpu=0.93
New Load.MT_336356_M1 bus1=765261.1.2.3.4 phases=3 conn=Delta model=2 kv=23.1 kw=1.2240215 pf=0.92 daily=MT3_DU status=variable vmaxpu=1.5 vminpu=0.93
New Load.MT_336356_M2 bus1=765261.1.2.3.4 phases=3 conn=Delta model=3 kv=23.1 kw=1.2240215 pf=0.92 daily=MT3_DU status=variable vmaxpu=1.5 vminpu=0.93
New Load.MT_337042_M1 bus1=125752.1.2.3.4 phases=3 conn=Delta model=2 kv=23.1 kw=14.466226 pf=0.92 daily=MT6_DU status=variable vmaxpu=1.5 vminpu=0.93
New Load.MT_337042_M2 bus1=125752.1.2.3.4 phases=3 conn=Delta model=3 kv=23.1 kw=14.466226 pf=0.92 daily=MT6_DU status=variable vmaxpu=1.5 vminpu=0.93
New Load.MT_519007_M1 bus1=7651.1.2.3.4 phases=3 conn=Delta model=2 kv=23.1 kw=7.2208765 pf=0.92 daily=MT3_DU status=variable vmaxpu=1.5 vminpu=0.93
New Load.MT_519007_M2 bus1=7651.1.2.3.4 phases=3 conn=Delta model=3 kv=23.1 kw=7.2208765 pf=0.92 daily=MT3_DU status=variable vmaxpu=1.5 vminpu=0.93
New Load.MT_522020_M1 bus1=291351.1.2.3.4 phases=3 conn=Delta model=2 kv=23.1 kw=155.558854 pf=0.92 daily=MT2_DU status=variable vmaxpu=1.5 vminpu=0.93
New Load.MT_522020_M2 bus1=291351.1.2.3.4 phases=3 conn=Delta model=3 kv=23.1 kw=155.558854 pf=0.92 daily=MT2_DU status=variable vmaxpu=1.5 vminpu=0.93
New Load.MT_536248_M1 bus1=759971.1.2.3.4 phases=3 conn=Delta model=2 kv=23.1 kw=29.8013285 pf=0.92 daily=MT3_DU status=variable vmaxpu=1.5 vminpu=0.93
New Load.MT_536248_M2 bus1=759971.1.2.3.4 phases=3 conn=Delta model=3 kv=23.1 kw=29.8013285 pf=0.92 daily=MT3_DU status=variable vmaxpu=1.5 vminpu=0.93
